mtd/fot_linearization/34Bus_copy/ieee34-1_Curr_Elem.Txt

CIRCUIT ELEMENT CURRENTS

(Currents into element from indicated bus)

Power Delivery Elements

  Bus     Phase    Magnitude, A     Angle      (Real)   +j  (Imag)

ELEMENT = "Vsource.SOURCE"
SOURCEBUS     1           16.956 /_ -162.6 =    -16.179 +j   -5.0729
SOURCEBUS     2           14.991 /_   83.4 =     1.7219 +j    14.891
SOURCEBUS     3           17.476 /_  -34.2 =     14.457 +j   -9.8186
------------
SOURCEBUS     0           16.956 /_   17.4 =     16.179 +j    5.0729
SOURCEBUS     0           14.991 /_  -96.6 =    -1.7219 +j   -14.891
SOURCEBUS     0           17.476 /_  145.8 =    -14.457 +j    9.8186

ELEMENT = "Transformer.SUBXF"
SOURCEBUS     1           16.956 /_   17.4 =     16.179 +j    5.0729
SOURCEBUS     2           14.991 /_  -96.6 =    -1.7219 +j   -14.891
SOURCEBUS     3           17.476 /_  145.8 =    -14.457 +j    9.8186
SOURCEBUS     0                0 /_    0.0 =          0 +j         0
------------
800           1             51.7 /_  167.6 =     -50.49 +j    11.122
800           2           44.677 /_   52.6 =     27.163 +j    35.471
800           3           40.662 /_  -62.3 =     18.899 +j   -36.003
800           0           11.478 /_  -67.3 =      4.428 +j    -10.59

ELEMENT = "Line.L1"
800           1             51.7 /_  -12.4 =      50.49 +j   -11.122
800           2           44.677 /_ -127.4 =    -27.163 +j   -35.471
800           3           40.662 /_  117.7 =    -18.899 +j    36.003
------------
802           1           51.712 /_  167.5 =    -50.493 +j    11.163
802           2           44.677 /_   52.5 =     27.193 +j    35.448
802           3           40.665 /_  -62.4 =      18.87 +j   -36.022

ELEMENT = "Line.L2"
802           1           51.712 /_  -12.5 =     50.493 +j   -11.163
802           2           43.627 /_ -127.0 =    -26.264 +j   -34.836
802           3            39.82 /_  118.3 =    -18.858 +j    35.072
------------
806           1            51.72 /_  167.5 =    -50.495 +j     11.19
806           2           43.627 /_   53.0 =     26.284 +j     34.82
806           3           39.822 /_  -61.8 =     18.839 +j   -35.085

ELEMENT = "Line.L3"
806           1            51.72 /_  -12.5 =     50.495 +j    -11.19
806           2           42.579 /_ -126.5 =    -25.354 +j   -34.208
806           3           38.981 /_  118.9 =    -18.827 +j    34.133
------------
808           1           51.861 /_  167.0 =    -50.527 +j    11.688
808           2           42.573 /_   52.8 =     25.728 +j     33.92
808           3           39.014 /_  -61.8 =     18.464 +j   -34.368

ELEMENT = "Line.L4"
808           2          0.60179 /_ -143.2 =   -0.48163 +j  -0.36081
------------
810           2          0.62583 /_   32.0 =    0.53082 +j    0.3315

ELEMENT = "Line.L5"
808           1           51.861 /_  -13.0 =     50.527 +j   -11.688
808           2           41.412 /_ -126.6 =    -24.716 +j   -33.227
808           3           39.014 /_  118.2 =    -18.464 +j    34.368
------------
812           1           52.022 /_  166.4 =    -50.558 +j    12.251
812           2           41.401 /_   52.6 =     25.139 +j    32.895
812           3           39.051 /_  -62.5 =     18.046 +j   -34.631

ELEMENT = "Line.L6"
812           1           52.022 /_  -13.6 =     50.558 +j   -12.251
812           2           41.401 /_ -127.4 =    -25.139 +j   -32.895
812           3           39.051 /_  117.5 =    -18.046 +j    34.631
------------
814           1           52.145 /_  165.9 =    -50.579 +j    12.685
814           2           41.393 /_   52.0 =     25.465 +j    32.633
814           3           39.079 /_  -63.0 =      17.72 +j   -34.831

ELEMENT = "Line.L7"
814R          1           48.226 /_  -14.1 =     46.778 +j    -11.73
814R          2           40.139 /_ -128.0 =    -24.692 +j   -31.645
814R          3           37.895 /_  117.0 =    -17.184 +j    33.775
------------
850           1           48.226 /_  165.9 =    -46.778 +j    11.731
850           2           40.139 /_   52.0 =     24.692 +j    31.645
850           3           37.895 /_  -63.0 =     17.184 +j   -33.775

ELEMENT = "Line.L8"
816           1            12.97 /_  -26.5 =     11.604 +j   -5.7941
------------
818           1           12.977 /_  153.4 =    -11.604 +j    5.8109

ELEMENT = "Line.L9"
816           1           35.672 /_   -9.6 =     35.174 +j    -5.941
816           2           40.073 /_ -127.9 =    -24.641 +j   -31.602
816           3           37.895 /_  117.0 =    -17.181 +j    33.777
------------
824           1           35.703 /_  170.2 =    -35.179 +j    6.0909
824           2            40.07 /_   51.9 =      24.75 +j    31.513
824           3           37.905 /_  -63.2 =      17.07 +j   -33.844

ELEMENT = "Line.L10"
818           1           11.622 /_  -26.4 =      10.41 +j   -5.1673
------------
820           1           11.825 /_  151.5 =    -10.395 +j    5.6355

ELEMENT = "Line.L11"
820           1           5.2273 /_  -27.8 =     4.6224 +j   -2.4409
------------
822           1           5.2867 /_  150.9 =    -4.6185 +j    2.5728

ELEMENT = "Line.L12"
824           2           1.5425 /_ -148.0 =    -1.3086 +j  -0.81661
------------
826           2           1.5554 /_   31.0 =     1.3334 +j    0.8008

ELEMENT = "Line.L13"
824           1           35.703 /_   -9.8 =     35.179 +j   -6.0909
824           2           37.118 /_ -126.5 =    -22.053 +j   -29.856
824           3           37.766 /_  116.9 =    -17.066 +j    33.691
------------
828           1           35.705 /_  170.2 =     -35.18 +j    6.1031
828           2           37.117 /_   53.5 =     22.062 +j    29.849
828           3           37.767 /_  -63.2 =     17.057 +j   -33.696

ELEMENT = "Line.L14"
828           1           35.454 /_   -9.7 =     34.944 +j   -5.9929
828           2           37.117 /_ -126.5 =    -22.062 +j   -29.849
828           3           37.628 /_  116.9 =    -17.053 +j    33.542
------------
830           1           35.515 /_  169.8 =    -34.953 +j    6.2889
830           2           37.103 /_   53.1 =     22.277 +j    29.671
830           3           37.647 /_  -63.4 =     16.834 +j   -33.674

ELEMENT = "Line.L15"
830           1           34.046 /_   -9.0 =     33.629 +j   -5.3132
830           2           36.386 /_ -126.4 =     -21.61 +j   -29.274
830           3           36.335 /_  116.9 =    -16.416 +j    32.414
------------
854           1           34.048 /_  171.0 =    -33.629 +j    5.3207
854           2           36.386 /_   53.6 =     21.615 +j     29.27
854           3           36.335 /_  -63.1 =     16.411 +j   -32.418

ELEMENT = "Line.L16"
832           1           21.042 /_    1.9 =     21.031 +j   0.68453
832           2           23.193 /_ -115.3 =    -9.9254 +j   -20.962
832           3           24.107 /_  129.1 =    -15.218 +j    18.696
------------
858           1           21.041 /_ -178.3 =    -21.032 +j   -0.6109
858           2           23.175 /_   64.5 =     9.9782 +j    20.917
858           3           24.097 /_  -51.0 =     15.164 +j   -18.728

ELEMENT = "Line.L17"
834           1           8.4662 /_  -39.1 =      6.573 +j    -5.336
834           2           8.3432 /_ -154.9 =    -7.5579 +j   -3.5337
834           3           7.8932 /_   95.7 =   -0.78118 +j    7.8545
------------
860           1           8.4858 /_  140.8 =    -6.5736 +j    5.3663
860           2           8.3551 /_   24.9 =     7.5796 +j    3.5152
860           3           7.9039 /_  -84.5 =    0.75869 +j   -7.8674

ELEMENT = "Line.L18"
834           1           14.889 /_   35.5 =     12.119 +j    8.6488
834           2           16.404 /_  -94.7 =     -1.333 +j    -16.35
834           3           15.124 /_  151.7 =    -13.315 +j    7.1712
------------
842           1           14.886 /_ -144.5 =    -12.119 +j   -8.6446
842           2           16.402 /_   85.3 =      1.336 +j    16.347
842           3           15.122 /_  -28.3 =     13.312 +j   -7.1729

ELEMENT = "Line.L19"
836           1           1.1246 /_  -26.3 =     1.0078 +j  -0.49909
836           2           1.5558 /_ -153.8 =    -1.3954 +j  -0.68801
836           3           1.2621 /_   71.9 =      0.392 +j    1.1997
------------
840           1           1.1306 /_  153.1 =    -1.0081 +j   0.51195
840           2           1.5606 /_   25.8 =     1.4046 +j   0.68011
840           3           1.2703 /_ -108.4 =   -0.40157 +j   -1.2052

ELEMENT = "Line.L20"
836           1        0.0041906 /_   91.2 =  -8.936E-005 +j 0.0041897
836           2           2.0725 /_ -148.9 =    -1.7746 +j   -1.0705
836           3        0.0035953 /_ -150.1 =  -0.0031157 +j -0.001794
------------
862           1      1.4665E-011 /_  -29.7 =  1.2733E-011 +j -7.276E-012
862           2           2.0737 /_   31.0 =     1.7776 +j    1.0679
862           3      3.1083E-011 /_  -69.4 =  1.0914E-011 +j -2.9104E-011

ELEMENT = "Line.L21"
842           1           14.756 /_   36.7 =     11.827 +j    8.8245
842           2           16.402 /_  -94.7 =     -1.336 +j   -16.347
842           3           15.122 /_  151.7 =    -13.312 +j    7.1729
------------
844           1           14.744 /_ -143.3 =    -11.827 +j   -8.8043
844           2           16.391 /_   85.3 =     1.3505 +j    16.335
844           3           15.113 /_  -28.4 =     13.297 +j   -7.1816

ELEMENT = "Line.L22"
844           1            9.943 /_   79.7 =     1.7717 +j    9.7838
844           2           9.4735 /_  -57.0 =     5.1656 +j   -7.9413
844           3           9.5997 /_ -165.5 =    -9.2927 +j   -2.4083
------------
846           1           9.8895 /_ -100.3 =    -1.7728 +j   -9.7293
846           2           9.4242 /_  123.0 =    -5.1266 +j    7.9079
846           3           9.5546 /_   14.5 =     9.2521 +j     2.385

ELEMENT = "Line.L23"
846           1           9.8895 /_   79.7 =     1.7728 +j    9.7293
846           2           9.6612 /_  -46.4 =     6.6587 +j   -7.0001
846           3           9.8023 /_ -161.2 =    -9.2812 +j   -3.1535
------------
848           1           9.8818 /_ -100.3 =     -1.773 +j   -9.7214
848           2           9.6537 /_  133.6 =     -6.653 +j    6.9952
848           3           9.7956 /_   18.8 =     9.2753 +j    3.1501

ELEMENT = "Line.L24"
850           1           48.226 /_  -14.1 =     46.778 +j   -11.731
850           2           40.139 /_ -128.0 =    -24.692 +j   -31.645
850           3           37.895 /_  117.0 =    -17.184 +j    33.775
------------
816           1           48.228 /_  165.9 =    -46.778 +j    11.735
816           2           40.139 /_   52.0 =     24.696 +j    31.642
816           3           37.895 /_  -63.0 =     17.181 +j   -33.777

ELEMENT = "Line.L25"
852R          1            31.58 /_   -9.8 =     31.115 +j    -5.401
852R          2           33.375 /_ -127.4 =    -20.262 +j    -26.52
852R          3           33.829 /_  116.1 =    -14.907 +j    30.367
------------
832           1            31.58 /_  170.2 =    -31.115 +j    5.4011
832           2           33.375 /_   52.6 =     20.262 +j     26.52
832           3           33.829 /_  -63.9 =     14.907 +j   -30.367

ELEMENT = "Transformer.XFM1"
832           1           11.686 /_  -31.2 =     10.001 +j   -6.0457
832           2           11.709 /_ -151.7 =    -10.313 +j   -5.5452
832           3           11.595 /_   88.5 =    0.31145 +j    11.591
832           0       0.00028176 /_   40.6 =  0.00021404 +j 0.00018323
------------
888           1            69.95 /_  148.8 =    -59.863 +j    36.187
888           2           70.086 /_   28.3 =     61.728 +j    33.191
888           3           69.402 /_  -91.5 =    -1.8642 +j   -69.377
888           0        0.0016865 /_ -139.4 =  -0.0012812 +j -0.0010967

ELEMENT = "Line.L26"
854           2          0.20715 /_  -75.2 =   0.052857 +j  -0.20029
------------
856           2          0.15611 /_   30.6 =    0.13438 +j  0.079456

ELEMENT = "Line.L27"
854           1           34.048 /_   -9.0 =     33.629 +j   -5.3207
854           2           36.113 /_ -126.6 =    -21.533 +j    -28.99
854           3           36.335 /_  116.9 =    -16.411 +j    32.418
------------
852           1           34.146 /_  170.2 =    -33.643 +j    5.8413
852           2           36.086 /_   52.6 =     21.909 +j    28.674
852           3           36.366 /_  -63.9 =     16.024 +j   -32.646

ELEMENT = "Line.L28"
858           1         0.068689 /_  -16.8 =   0.065746 +j -0.019892
------------
864           1         0.074397 /_  151.0 =  -0.065045 +j  0.036111

ELEMENT = "Line.L29"
858           1           20.616 /_    2.7 =     20.594 +j   0.95638
858           2           22.788 /_ -115.2 =    -9.6968 +j   -20.622
858           3           23.646 /_  130.0 =    -15.197 +j    18.117
------------
834           1           20.614 /_ -177.6 =    -20.596 +j  -0.86898
834           2           22.766 /_   64.6 =     9.7595 +j    20.568
834           3           23.633 /_  -50.2 =     15.132 +j   -18.154

ELEMENT = "Line.L30"
860           1           2.8043 /_  -26.5 =     2.5099 +j   -1.2507
860           2           5.1588 /_ -152.2 =    -4.5655 +j   -2.4021
860           3           2.6106 /_   83.8 =    0.28029 +j    2.5956
------------
836           1           2.8231 /_  152.8 =    -2.5108 +j    1.2908
836           2           5.1729 /_   27.4 =     4.5942 +j    2.3774
836           3           2.6311 /_  -96.8 =   -0.31012 +j   -2.6127

ELEMENT = "Line.L31"
862           2           1.0265 /_ -147.7 =   -0.86807 +j  -0.54784
------------
838           2           1.0479 /_   29.8 =    0.90968 +j   0.52011

ELEMENT = "Line.L32"
888           1            69.95 /_  -31.2 =     59.863 +j   -36.187
888           2           70.086 /_ -151.7 =    -61.728 +j   -33.191
888           3           69.402 /_   88.5 =     1.8642 +j    69.377
------------
890           1           69.963 /_  148.8 =    -59.863 +j    36.213
890           2           70.094 /_   28.2 =     61.746 +j    33.175
890           3           69.413 /_  -91.6 =    -1.8834 +j   -69.388

ELEMENT = "Capacitor.C844"
844           1           7.2509 /_   87.4 =    0.32391 +j    7.2437
844           2           7.2313 /_  -33.7 =     6.0158 +j   -4.0127
844           3           7.1799 /_ -153.3 =    -6.4149 +j    -3.225
------------
844           0           7.2509 /_  -92.6 =   -0.32391 +j   -7.2437
844           0           7.2313 /_  146.3 =    -6.0158 +j    4.0127
844           0           7.1799 /_   26.7 =     6.4149 +j     3.225

ELEMENT = "Capacitor.C848"
848           1           10.879 /_   87.4 =    0.49558 +j    10.868
848           2           10.846 /_  -33.8 =     9.0179 +j   -6.0269
848           3           10.772 /_ -153.4 =    -9.6293 +j   -4.8292
------------
848           0           10.879 /_  -92.6 =   -0.49558 +j   -10.868
848           0           10.846 /_  146.2 =    -9.0179 +j    6.0269
848           0           10.772 /_   26.6 =     9.6293 +j    4.8292

ELEMENT = "Transformer.REG1A"
814           1           52.145 /_  -14.1 =     50.579 +j   -12.685
814           0           52.145 /_  165.9 =    -50.579 +j    12.684
------------
814R          1           48.226 /_  165.9 =    -46.778 +j     11.73
814R          0           48.226 /_  -14.1 =     46.778 +j   -11.731

ELEMENT = "Transformer.REG1B"
814           2           41.393 /_ -128.0 =    -25.465 +j   -32.633
814           0           41.393 /_   52.0 =     25.465 +j    32.634
------------
814R          2           40.139 /_   52.0 =     24.692 +j    31.645
814R          0           40.139 /_ -128.0 =    -24.693 +j   -31.645

ELEMENT = "Transformer.REG1C"
814           3           39.079 /_  117.0 =     -17.72 +j    34.831
814           0           39.079 /_  -63.0 =      17.72 +j    -34.83
------------
814R          3           37.895 /_  -63.0 =     17.184 +j   -33.775
814R          0           37.895 /_  117.0 =    -17.183 +j    33.775

ELEMENT = "Transformer.REG2A"
852           1           34.146 /_   -9.8 =     33.643 +j   -5.8413
852           0           34.146 /_  170.2 =    -33.643 +j    5.8406
------------
852R          1            31.58 /_  170.2 =    -31.115 +j     5.401
852R          0            31.58 /_   -9.8 =     31.115 +j   -5.4017

ELEMENT = "Transformer.REG2B"
852           2           36.086 /_ -127.4 =    -21.909 +j   -28.674
852           0           36.086 /_   52.6 =     21.908 +j    28.675
------------
852R          2           33.375 /_   52.6 =     20.262 +j     26.52
852R          0           33.375 /_ -127.4 =    -20.262 +j    -26.52

ELEMENT = "Transformer.REG2C"
852           3           36.366 /_  116.1 =    -16.024 +j    32.646
852           0           36.366 /_  -63.9 =     16.025 +j   -32.645
------------
852R          3           33.829 /_  -63.9 =     14.907 +j   -30.367
852R          0           33.829 /_  116.1 =    -14.907 +j    30.368

= = = = = = = = = = = = = = = = = = =  = = = = = = = = = = =  = =

Power Conversion Elements

  Bus     Phase    Magnitude, A     Angle      (Real)   +j  (Imag)

ELEMENT = "Load.S860"
860           1           1.7094 /_  -41.2 =     1.2864 +j   -1.1256
860           2           1.7138 /_ -162.3 =     -1.633 +j  -0.52005
860           3           1.7262 /_   78.1 =    0.35716 +j    1.6888
860           0         0.044419 /_ -103.8 =   -0.01059 +j -0.043139

ELEMENT = "Load.S840"
840           1          0.79311 /_  -40.4 =      0.604 +j  -0.51401
840           2          0.79311 /_ -161.5 =   -0.75234 +j    -0.251
840           3          0.79311 /_   78.8 =    0.15344 +j   0.77813
840           0         0.014066 /_ -111.2 =  -0.0050934 +j -0.013111

ELEMENT = "Load.S844"
844           1           12.401 /_  -40.4 =     9.4388 +j   -8.0431
844           2           12.367 /_ -161.6 =    -11.734 +j   -3.9079
844           3            12.28 /_   78.8 =     2.3819 +j    12.046
844           0          0.12905 /_ -132.4 =  -0.087089 +j -0.095238

ELEMENT = "Load.S848"
848           1           1.7162 /_  -41.9 =     1.2774 +j   -1.1461
848           2           1.7162 /_ -161.9 =    -1.6313 +j  -0.53298
848           3            1.716 /_   78.1 =    0.35393 +j    1.6791

ELEMENT = "Load.S830A"
830           1          0.45001 /_    1.0 =    0.44995 +j 0.0075055
830           2          0.45001 /_ -179.0 =   -0.44995 +j -0.0075055

ELEMENT = "Load.S830B"
830           2          0.44598 /_ -119.2 =   -0.21727 +j  -0.38947
830           3          0.44598 /_   60.8 =    0.21727 +j   0.38947

ELEMENT = "Load.S830C"
830           3           1.0771 /_  126.1 =   -0.63481 +j   0.87018
830           1           1.0771 /_  -53.9 =    0.63481 +j  -0.87018

ELEMENT = "Load.S890"
890           1           69.964 /_  -31.2 =     59.863 +j   -36.213
890           2           70.094 /_ -151.8 =    -61.746 +j   -33.175
890           3           69.413 /_   88.4 =     1.8834 +j    69.388

ELEMENT = "Load.D802_806SB"
802           2           1.1127 /_ -146.6 =   -0.92916 +j  -0.61217
802           0           1.1127 /_   33.4 =    0.92916 +j   0.61217

ELEMENT = "Load.D802_806RB"
806           2           1.1138 /_ -146.7 =   -0.93046 +j  -0.61217
806           0           1.1138 /_   33.3 =    0.93046 +j   0.61217

ELEMENT = "Load.D802_806SC"
802           3           0.9505 /_   90.7 =  -0.011752 +j   0.95043
802           0           0.9505 /_  -89.3 =   0.011752 +j  -0.95043

ELEMENT = "Load.D802_806RC"
806           3          0.95141 /_   90.7 =  -0.011307 +j   0.95134
806           0          0.95141 /_  -89.3 =   0.011307 +j  -0.95134

ELEMENT = "Load.D808_810SB"
808           2          0.62585 /_ -148.0 =   -0.53085 +j  -0.33148
808           0          0.62585 /_   32.0 =    0.53085 +j   0.33148

ELEMENT = "Load.D808_810RB"
810           2          0.62583 /_ -148.0 =   -0.53082 +j   -0.3315
810           0          0.62583 /_   32.0 =    0.53082 +j    0.3315

ELEMENT = "Load.D818_820SA"
818           1           1.3565 /_  -28.3 =     1.1941 +j  -0.64353
818           0           1.3565 /_  151.7 =    -1.1941 +j   0.64353

ELEMENT = "Load.D818_820RA"
820           1           1.3265 /_  -28.3 =     1.1681 +j  -0.62859
820           0           1.3265 /_  151.7 =    -1.1681 +j   0.62859

ELEMENT = "Load.D820_822SA"
820           1           5.2715 /_  -29.1 =     4.6048 +j    -2.566
820           0           5.2715 /_  150.9 =    -4.6048 +j     2.566

ELEMENT = "Load.D820_822RA"
822           1           5.2867 /_  -29.1 =     4.6185 +j   -2.5728
822           0           5.2867 /_  150.9 =    -4.6185 +j    2.5728

ELEMENT = "Load.D816_824SB"
816           2         0.068152 /_ -144.1 =  -0.055182 +j -0.039996
816           0         0.068152 /_   35.9 =   0.055182 +j  0.039996

ELEMENT = "Load.D816_824RB"
824           2         0.067313 /_ -144.2 =  -0.054629 +j -0.039328
824           0         0.067313 /_   35.8 =   0.054629 +j  0.039328

ELEMENT = "Load.D824_826SB"
824           2           1.5554 /_ -149.0 =    -1.3334 +j  -0.80079
824           0           1.5554 /_   31.0 =     1.3334 +j   0.80079

ELEMENT = "Load.D824_826RB"
826           2           1.5554 /_ -149.0 =    -1.3334 +j   -0.8008
826           0           1.5554 /_   31.0 =     1.3334 +j    0.8008

ELEMENT = "Load.D824_828SC"
824           3           0.1536 /_   91.6 =  -0.0042111 +j   0.15354
824           0           0.1536 /_  -88.4 =  0.0042111 +j  -0.15354

ELEMENT = "Load.D824_828RC"
828           3           0.1537 /_   91.6 =  -0.0041692 +j   0.15365
828           0           0.1537 /_  -88.4 =  0.0041692 +j  -0.15365

ELEMENT = "Load.D828_830SA"
828           1          0.26037 /_  -25.0 =    0.23589 +j  -0.11023
828           0          0.26037 /_  155.0 =   -0.23589 +j   0.11023

ELEMENT = "Load.D828_830RA"
830           1          0.26495 /_  -25.2 =    0.23966 +j  -0.11297
830           0          0.26495 /_  154.8 =   -0.23966 +j   0.11297

ELEMENT = "Load.D854_856SB"
854           2           0.1561 /_ -149.4 =   -0.13436 +j  -0.07946
854           0           0.1561 /_   30.6 =    0.13436 +j   0.07946

ELEMENT = "Load.D854_856RB"
856           2          0.15611 /_ -149.4 =   -0.13438 +j -0.079456
856           0          0.15611 /_   30.6 =    0.13438 +j  0.079456

ELEMENT = "Load.D832_858SA"
832           1         0.092501 /_  -25.6 =   0.083406 +j -0.039997
832           0         0.092501 /_  154.4 =  -0.083406 +j  0.039997

ELEMENT = "Load.D832_858RA"
858           1         0.092297 /_  -25.7 =   0.083187 +j -0.039983
858           0         0.092297 /_  154.3 =  -0.083187 +j  0.039983

ELEMENT = "Load.D832_858SB"
832           2         0.027092 /_ -150.1 =  -0.023478 +j -0.013519
832           0         0.027092 /_   29.9 =   0.023478 +j  0.013519

ELEMENT = "Load.D832_858RB"
858           2         0.027031 /_ -150.1 =  -0.023444 +j -0.013455
858           0         0.027031 /_   29.9 =   0.023444 +j  0.013455

ELEMENT = "Load.D832_858SC"
832           3         0.080674 /_   90.4 =  -0.00051507 +j  0.080672
832           0         0.080674 /_  -89.6 =  0.00051507 +j -0.080672

ELEMENT = "Load.D832_858RC"
858           3         0.080499 /_   90.3 =  -0.00037911 +j  0.080498
858           0         0.080499 /_  -89.7 =  0.00037911 +j -0.080498

ELEMENT = "Load.D858_864SB"
858           1         0.074397 /_  -29.0 =   0.065045 +j -0.036111
858           0         0.074397 /_  151.0 =  -0.065045 +j  0.036111

ELEMENT = "Load.D858_864RB"
864           1         0.074397 /_  -29.0 =   0.065045 +j -0.036111
864           0         0.074397 /_  151.0 =  -0.065045 +j  0.036111

ELEMENT = "Load.D858_834SA"
858           1          0.08554 /_    0.4 =   0.085538 +j 0.0005478
858           2          0.08554 /_ -179.6 =  -0.085538 +j -0.0005478

ELEMENT = "Load.D858_834RA"
834           1         0.085748 /_    0.3 =   0.085747 +j 0.00043018
834           2         0.085748 /_ -179.7 =  -0.085747 +j -0.00043018

ELEMENT = "Load.D858_834SB"
858           2          0.32928 /_ -121.6 =   -0.17238 +j  -0.28055
858           3          0.32928 /_   58.4 =    0.17238 +j   0.28055

ELEMENT = "Load.D858_834RB"
834           2          0.33009 /_ -121.7 =   -0.17331 +j  -0.28093
834           3          0.33009 /_   58.3 =    0.17331 +j   0.28093

ELEMENT = "Load.D858_834SC"
858           3          0.28602 /_  119.0 =   -0.13887 +j   0.25005
858           1          0.28602 /_  -61.0 =    0.13887 +j  -0.25005

ELEMENT = "Load.D858_834RC"
834           3          0.28683 /_  119.0 =   -0.13887 +j   0.25097
834           1          0.28683 /_  -61.0 =    0.13887 +j  -0.25097

ELEMENT = "Load.D834_860SA"
834           1          0.37619 /_    0.3 =    0.37618 +j 0.0018872
834           2          0.37619 /_ -179.7 =   -0.37618 +j -0.0018872

ELEMENT = "Load.D834_860RA"
860           1          0.37605 /_    0.3 =    0.37605 +j 0.0019185
860           2          0.37605 /_ -179.7 =   -0.37605 +j -0.0019185

ELEMENT = "Load.D834_860SB"
834           2          0.46435 /_ -120.2 =   -0.23332 +j  -0.40147
834           3          0.46435 /_   59.8 =    0.23332 +j   0.40147

ELEMENT = "Load.D834_860RB"
860           2          0.46418 /_ -120.2 =   -0.23323 +j  -0.40133
860           3          0.46418 /_   59.8 =    0.23323 +j   0.40133

ELEMENT = "Load.D834_860SC"
834           3           2.5527 /_  120.7 =     -1.303 +j    2.1951
834           1           2.5527 /_  -59.3 =      1.303 +j   -2.1951

ELEMENT = "Load.D834_860RC"
860           3           2.5516 /_  120.7 =    -1.3025 +j    2.1941
860           1           2.5516 /_  -59.3 =     1.3025 +j   -2.1941

ELEMENT = "Load.D860_836SA"
860           1          0.64335 /_    0.3 =    0.64334 +j 0.0032822
860           2          0.64335 /_ -179.7 =   -0.64334 +j -0.0032822

ELEMENT = "Load.D860_836RA"
836           1          0.64351 /_    0.3 =     0.6435 +j 0.0032734
836           2          0.64351 /_ -179.7 =    -0.6435 +j -0.0032734

ELEMENT = "Load.D860_836SB"
860           2          0.22652 /_ -124.6 =    -0.1285 +j  -0.18654
860           3          0.22652 /_   55.4 =     0.1285 +j   0.18654

ELEMENT = "Load.D860_836RB"
836           2          0.22658 /_ -124.6 =   -0.12852 +j   -0.1866
836           3          0.22658 /_   55.4 =    0.12852 +j    0.1866

ELEMENT = "Load.D860_836SC"
860           3          0.92145 /_  119.6 =   -0.45535 +j   0.80108
860           1          0.92145 /_  -60.4 =    0.45535 +j  -0.80108

ELEMENT = "Load.D860_836RC"
836           3          0.92161 /_  119.6 =   -0.45544 +j   0.80121
836           1          0.92161 /_  -60.4 =    0.45544 +j  -0.80121

ELEMENT = "Load.D836_840SA"
836           1          0.40411 /_    0.3 =     0.4041 +j 0.0020556
836           2          0.40411 /_ -179.7 =    -0.4041 +j -0.0020556

ELEMENT = "Load.D836_840RA"
840           1          0.40411 /_    0.3 =     0.4041 +j 0.0020558
840           2          0.40411 /_ -179.7 =    -0.4041 +j -0.0020558

ELEMENT = "Load.D836_840SB"
836           2          0.49391 /_ -120.2 =   -0.24814 +j  -0.42705
836           3          0.49391 /_   59.8 =    0.24814 +j   0.42705

ELEMENT = "Load.D836_840RB"
840           2          0.49391 /_ -120.2 =   -0.24814 +j  -0.42705
840           3          0.49391 /_   59.8 =    0.24814 +j   0.42705

ELEMENT = "Load.D862_838SB"
862           2           1.0477 /_ -150.2 =   -0.90954 +j  -0.52005
862           0           1.0477 /_   29.8 =    0.90954 +j   0.52005

ELEMENT = "Load.D862_838RB"
838           2           1.0479 /_ -150.2 =   -0.90968 +j  -0.52011
838           0           1.0479 /_   29.8 =    0.90968 +j   0.52011

ELEMENT = "Load.D842_844SA"
842           1          0.34344 /_  -31.6 =    0.29254 +j  -0.17992
842           0          0.34344 /_  148.4 =   -0.29254 +j   0.17992

ELEMENT = "Load.D842_844RA"
844           1          0.34352 /_  -31.6 =    0.29254 +j  -0.18008
844           0          0.34352 /_  148.4 =   -0.29254 +j   0.18008

ELEMENT = "Load.D844_846SB"
844           2          0.92777 /_ -149.3 =   -0.79812 +j  -0.47303
844           0          0.92777 /_   30.7 =    0.79812 +j   0.47303

ELEMENT = "Load.D844_846RB"
846           2          0.92783 /_ -149.4 =   -0.79854 +j  -0.47244
846           0          0.92783 /_   30.6 =    0.79854 +j   0.47244

ELEMENT = "Load.D844_846SC"
844           3          0.76912 /_   87.9 =   0.028462 +j   0.76859
844           0          0.76912 /_  -92.1 =  -0.028462 +j  -0.76859

ELEMENT = "Load.D844_846RC"
846           3          0.76897 /_   87.8 =   0.029112 +j   0.76841
846           0          0.76897 /_  -92.2 =  -0.029112 +j  -0.76841

ELEMENT = "Load.D846_848SB"
846           2          0.85302 /_ -149.3 =   -0.73354 +j  -0.43538
846           0          0.85302 /_   30.7 =    0.73354 +j   0.43538

ELEMENT = "Load.D846_848RB"
848           2          0.85301 /_ -149.3 =   -0.73358 +j  -0.43529
848           0          0.85301 /_   30.7 =    0.73358 +j   0.43529

